/*--------------------------------*- C++ -*----------------------------------*\
| =========                 |                                                 |
| \\      /  F ield         | OpenFOAM: The Open Source CFD Toolbox           |
|  \\    /   O peration     | Version:  v2312                                 |
|   \\  /    A nd           | Website:  www.openfoam.com                      |
|    \\/     M anipulation  |                                                 |
\*---------------------------------------------------------------------------*/
FoamFile
{
    version     2.0;
    format      ascii;
    class       dictionary;
    object      fvSolution;
}
// * * * * * * * * * * * * * * * * * * * * * * * * * * * * * * * * * * * * * //

solvers
{
    "(p|pFinal)"
    {
        solver          GAMG;
        tolerance       1e-10;
        relTol          1e-6;
        smoother        DICGaussSeidel;
    }

    "(U|k|epsilon|omega)"
    {
        solver          smoothSolver;
        smoother        symGaussSeidel;
        tolerance       1e-10;
        relTol          1e-6;
    }
}

PISO
{
    nNonOrthogonalCorrectors 1;
    nCorrectors              2;
}

relaxationFactors
{
    equations
    {
        U               0.9;
        ".*"            0.8;
    }
}


// ************************************************************************* //
